*SOILS: JKI Soil for CERES-Rye
! This file was created for ISU NE Research center, Nashua, Iowa 
! Created in September 2020 by Ashifur Rahman Shawon 
! Soil properties were obtained by the German Federal Institute for Geosciences and Natural Resources
! Study was published in https://doi.org/10.1002/agj2.21590

*JKSTBG0001  JKI, BS     SL       200  Braunschweig Sandy loam
@SITE        COUNTRY          LAT     LONG SCS FAMILY
 Brunswiek   Germany          52.3   10.44 Sandy loam
@ SCOM  SALB  SLU1  SLDR  SLRO  SLNF  SLPF  SMHB  SMPX  SMKE
    BN   .13     6    .4    61     1     1 IB001 IB001 IB001
@  SLB  SLMH  SLLL  SDUL  SSAT  SRGF  SSKS  SBDM  SLOC  SLCL  SLSI  SLCF  SLNI  SLHW  SLHB  SCEC  SADC
     5   -99  .103  .244  .497     1  2.59  1.23  1.74     6  31.7   -99   -99   -99   -99   -99   -99
    10   -99  .103  .244  .497     1  2.59  1.23  1.74     6  31.7   -99   -99   -99   -99   -99   -99
    15   -99  .103  .244  .497     1  2.59  1.23  1.74     6  31.7   -99   -99   -99   -99   -99   -99
    20   -99  .103  .244  .497     1  2.59  1.23  1.74     6  31.7   -99   -99   -99   -99   -99   -99
    25   -99  .103  .244  .497     1  2.59  1.23  1.74     6  31.7   -99   -99   -99   -99   -99   -99
    30   -99  .103  .244  .497     1  2.59  1.23  1.74     6  31.7   -99   -99   -99   -99   -99   -99
    40   -99  .103  .244  .497     1  2.59  1.23  1.74     6  31.7   -99   -99   -99   -99   -99   -99
    80   -99  .064  .138  .406  .601  6.11  1.51   .29     6  15.9   -99   -99   -99   -99   -99   -99
   120   -99  .054  .102  .406  .135    21  1.51   .29     4   3.7   -99   -99   -99   -99   -99   -99
   200   -99  .054  .102  .406  .135    21  1.51   .29     4   3.7   -99   -99   -99   -99   -99   -99

*JKDEBB0001  BSA         LS       200  Brandenburg  Loamy sand
@SITE        COUNTRY          LAT     LONG SCS FAMILY
 Brandenburg Germa          13.352  51.981 3.36 Loamy sand
@ SCOM  SALB  SLU1  SLDR  SLRO  SLNF  SLPF  SMHB  SMPX  SMKE
    BN   .13     6    .4    73     1     1 IB001 IB001 IB001
@  SLB  SLMH  SLLL  SDUL  SSAT  SRGF  SSKS  SBDM  SLOC  SLCL  SLSI  SLCF  SLNI  SLHW  SLHB  SCEC  SADC
     5   -99  .074  .215  .492     1  2.59  1.27   .87   6.5  16.3   -99   -99   -99   -99   -99   -99
    10   -99  .074  .215  .492     1  2.59  1.27   .87   6.5  16.3   -99   -99   -99   -99   -99   -99
    15   -99  .074  .215  .492     1  2.59  1.27   .87   6.5  16.3   -99   -99   -99   -99   -99   -99
    20   -99  .074  .215  .492     1  2.59  1.27   .87   6.5  16.3   -99   -99   -99   -99   -99   -99
    25   -99  .074  .215  .492     1  2.59  1.27   .87   6.5  16.3   -99   -99   -99   -99   -99   -99
    30   -99  .074  .215  .492     1  2.59  1.27   .87   6.5  16.3   -99   -99   -99   -99   -99   -99
    40   -99  .097  .291  .524  .649   .68  1.18   -99   6.5  16.3   -99   -99   -99   -99   -99   -99
    50   -99  .155  .335  .452  .673   .15  1.38   -99   6.5  16.3   -99   -99   -99   -99   -99   -99
    60   -99  .155  .335  .452  .673   .15  1.38   -99  14.5  23.3   -99   -99   -99   -99   -99   -99
    80   -99  .155  .335  .452  .473   .15  1.38   -99   6.5  16.3   -99   -99   -99   -99   -99   -99
   120   -99  .155  .335  .452  .473   .15  1.38   -99    21  32.7   -99   -99   -99   -99   -99   -99
   160   -99  .155  .335  .452  .273   .15  1.38   -99    21  32.7   -99   -99   -99   -99   -99   -99
   200   -99  .155  .335  .452  .273   .15  1.38   -99    21  32.7   -99   -99   -99   -99   -99   -99

*JKDEBY0001  BSA         L        200  Bavaria  Loam
@SITE        COUNTRY          LAT     LONG SCS FAMILY
 Bavaria     Germany         48.55   11.28 Loam
@ SCOM  SALB  SLU1  SLDR  SLRO  SLNF  SLPF  SMHB  SMPX  SMKE
    BN   .13     6    .4    88     1     1 IB001 IB001 IB001
@  SLB  SLMH  SLLL  SDUL  SSAT  SRGF  SSKS  SBDM  SLOC  SLCL  SLSI  SLCF  SLNI  SLHW  SLHB  SCEC  SADC
     5   -99  .074  .215  .492     1  2.59  1.27   .87  12.5    42   -99   -99   -99   -99   -99   -99
    10   -99  .074  .215  .492     1  2.59  1.27   .87  12.5    42   -99   -99   -99   -99   -99   -99
    15   -99  .074  .215  .492     1  2.59  1.27   .87  12.5    42   -99   -99   -99   -99   -99   -99
    20   -99  .074  .215  .492     1  2.59  1.27   .87  12.5    42   -99   -99   -99   -99   -99   -99
    25   -99  .074  .215  .492     1  2.59  1.27   .87  12.5    42   -99   -99   -99   -99   -99   -99
    30   -99  .074  .215  .492     1  2.59  1.27   .87  12.5    42   -99   -99   -99   -99   -99   -99
    50   -99  .097  .291  .524  .649   .68  1.18   -99    10  23.3   -99   -99   -99   -99   -99   -99
    70   -99  .155  .335  .452  .673   .15  1.38   -99   6.5  16.3   -99   -99   -99   -99   -99   -99
    90   -99  .155  .335  .452  .473   .15  1.38   -99   6.5  16.3   -99   -99   -99   -99   -99   -99
   120   -99  .155  .335  .452  .273   .15  1.38   -99   6.5  16.3   -99   -99   -99   -99   -99   -99
   160   -99  .155  .335  .452  .273   .15  1.38   -99   6.5  16.3   -99   -99   -99   -99   -99   -99
   200   -99  .155  .335  .452  .273   .15  1.38   -99   6.5  16.3   -99   -99   -99   -99   -99   -99

*JKSTGT0001  BGR         LS       200  Gadegust Loamy sand
@SITE        COUNTRY          LAT     LONG SCS FAMILY
 Gadegust    Germany        51.896  12.904 Loamy Sand
@ SCOM  SALB  SLU1  SLDR  SLRO  SLNF  SLPF  SMHB  SMPX  SMKE
    BN   .13     6    .4    73     1     1 IB001 IB001 IB001
@  SLB  SLMH  SLLL  SDUL  SSAT  SRGF  SSKS  SBDM  SLOC  SLCL  SLSI  SLCF  SLNI  SLHW  SLHB  SCEC  SADC
     5   -99  .082  .171   .43     1  6.11  1.43   .87   6.5  16.3   -99   -99   -99   -99   -99   -99
    10   -99  .082  .171   .43     1  6.11  1.43   .87   6.5  16.3   -99   -99   -99   -99   -99   -99
    15   -99  .058  .127  .394     1  6.11  1.55     0   6.5  16.3   -99   -99   -99   -99   -99   -99
    20   -99  .058  .127  .394     1  6.11  1.55     0   6.5  16.3   -99   -99   -99   -99   -99   -99
    25   -99  .058  .127  .394     1  6.11  1.55     0   6.5  16.3   -99   -99   -99   -99   -99   -99
    30   -99  .058  .127  .394     1  6.11  1.55     0   6.5  16.3   -99   -99   -99   -99   -99   -99
    40   -99  .058  .127  .394  .649  6.11  1.55     0   6.5  16.3   -99   -99   -99   -99   -99   -99
    50   -99  .058  .127  .394  .649  6.11  1.55     0   6.5  16.3   -99   -99   -99   -99   -99   -99
    60   -99  .098  .185  .387  .633  2.59  1.57     0  14.5  23.3   -99   -99   -99   -99   -99   -99
    80   -99  .058  .127  .394  .447  6.11  1.55     0   6.5  16.3   -99   -99   -99   -99   -99   -99
   100   -99  .131  .241  .409  .461  1.32  1.51     0    21  32.7   -99   -99   -99   -99   -99   -99
   150   -99  .131  .241  .409  .161  1.32  1.51     0    21  32.7   -99   -99   -99   -99   -99   -99
   200   -99  .131  .241  .409  .161  1.32  1.51     0    21  32.7   -99   -99   -99   -99   -99   -99

*JKSTHN0001  BGR         SIL      200  Hayn Silty Loam
@SITE        COUNTRY          LAT     LONG SCS FAMILY
 Hayn        Germany        51.573  11.079 Silty Loam
@ SCOM  SALB  SLU1  SLDR  SLRO  SLNF  SLPF  SMHB  SMPX  SMKE
    BN   .13     6    .4    73     1     1 IB001 IB001 IB001
@  SLB  SLMH  SLLL  SDUL  SSAT  SRGF  SSKS  SBDM  SLOC  SLCL  SLSI  SLCF  SLNI  SLHW  SLHB  SCEC  SADC
     5    25  .136  .301  .503     1   .68  1.24   -99  23.5  57.5   -99   -99   -99   -99   -99   -99
    10    25  .136  .301  .503     1   .68  1.24   -99  23.5  57.5   -99   -99   -99   -99   -99   -99
    15    25  .136  .301  .503     1   .68  1.24   -99  23.5  57.5   -99   -99   -99   -99   -99   -99
    20    25  .136  .301  .503     1   .68  1.24   -99  23.5  57.5   -99   -99   -99   -99   -99   -99
    25    25  .136  .301  .503     1   .68  1.24   -99  23.5  57.5   -99   -99   -99   -99   -99   -99
    30    25  .136  .301  .503     1   .68  1.24   -99  23.5  57.5   -99   -99   -99   -99   -99   -99
    40    25  .136  .301  .503     1   .68  1.24   -99  23.5  57.5   -99   -99   -99   -99   -99   -99
    50    25  .136  .301  .503     1   .68  1.24   -99  23.5  57.5   -99   -99   -99   -99   -99   -99
    60    35  .136  .301  .503  .627   .68  1.24   -99  23.5  57.5   -99   -99   -99   -99   -99   -99
    80    35  .136  .301  .503  .627   .68  1.24   -99  23.5  57.5   -99   -99   -99   -99   -99   -99
   100    35  .136  .301  .503  .627   .68  1.24   -99  23.5  57.5   -99   -99   -99   -99   -99   -99
   120    35  .136  .301  .503  .427   .68  1.24   -99  23.5  57.5   -99   -99   -99   -99   -99   -99
   170    35  .136  .301  .503  .427   .68  1.24   -99  23.5  57.5   -99   -99   -99   -99   -99   -99
   200    35  .136  .301  .503  .427   .68  1.24   -99  23.5  57.5   -99   -99   -99   -99   -99   -99

*JKSTWK0001  BGR          SIL     200  Walbeck Silty Loam
@SITE        COUNTRY          LAT     LONG SCS FAMILY
 Walbeck     Germany        51.674  11.455 Walbeck Silty Loam
@ SCOM  SALB  SLU1  SLDR  SLRO  SLNF  SLPF  SMHB  SMPX  SMKE
    BN   .13     6    .4    73     1     1 IB001 IB001 IB001
@  SLB  SLMH  SLLL  SDUL  SSAT  SRGF  SSKS  SBDM  SLOC  SLCL  SLSI  SLCF  SLNI  SLHW  SLHB  SCEC  SADC
     5   -99  .121  .304  .481     1   .68   1.3  1.74    20  67.2   -99   -99   -99   -99   -99   -99
    10   -99  .121  .304  .481     1   .68   1.3  1.74    20  67.2   -99   -99   -99   -99   -99   -99
    15   -99  .121  .304  .481     1   .68   1.3  1.74    20  67.2   -99   -99   -99   -99   -99   -99
    20   -99  .121  .304  .481     1   .68   1.3  1.74    20  67.2   -99   -99   -99   -99   -99   -99
    25   -99  .121  .304  .481     1   .68   1.3  1.74    20  67.2   -99   -99   -99   -99   -99   -99
    30   -99  .121  .304  .481     1   .68   1.3  1.74    20  67.2   -99   -99   -99   -99   -99   -99
    40   -99  .105  .291  .503  .697   .68  1.24   -99  14.5    69   -99   -99   -99   -99   -99   -99
    60   -99  .155  .335  .452  .668   .15  1.38   -99    28  63.9   -99   -99   -99   -99   -99   -99
    70   -99  .105  .291  .503  .673   .68  1.24   -99  14.5    69   -99   -99   -99   -99   -99   -99
    90   -99  .105  .291  .503  .602   .68  1.24   -99  14.5    69   -99   -99   -99   -99   -99   -99
   110   -99  .105  .291  .503  .435   .68  1.24   -99  14.5    69   -99   -99   -99   -99   -99   -99
   150   -99  .105  .291  .503  .135   .68  1.24   -99  14.5    69   -99   -99   -99   -99   -99   -99
   200   -99  .105  .291  .503  .135   .68  1.24   -99  14.5    69   -99   -99   -99   -99   -99   -99