*MODEL INPUT FILE            A     2     1     2     2     0
*FILES              
MODEL          CRGRO048
FILEX          UFWM1401.SRX                                                                                 
FILEA          UFWM1401.SRA                                                                                 
FILET          UFWM1401.SRT                                                                                 
SPECIES        SRGRO048.SPE ///app/dssat/Genotype/                                                          
ECOTYPE        SRGRO048.ECO ///app/dssat/Genotype/                                                          
CULTIVAR       SRGRO048.CUL ///app/dssat/Genotype/                                                          
PESTS          SRGRO048.PST ///app/dssat/Pest/                                                              
SOILS          SOIL.SOL                                                                                     
WEATHERW       UFWM1401.WTH                                                                                 
OUTPUT         OVERVIEW
*SIMULATION CONTROL 
                   1     1     S 2014274  2150 DEFAULT SIMULATION CONTR 
                   N     N     N     N     N     N     N     N     M
                   M     M     E     R     S     L     R     1     G     R     2     D     0
                   R     R     R     R     R
                   N     Y     Y     1     Y     Y     Y     Y     Y     N     Y     N     Y
!AUTOMATIC MANAGEM  
                   -99     -99   40.  100.   30.   40.   10.
                 30.   80.  100. GS000 IR004  10.0 1.000
                 30.   50.   25. FE001 GS000
                100.     1   20.
                     0     -99  100.    0.
*EXP.DETAILS        
  1UFWM1401 SR 2014 WIMAUMA STRAWBERRY GROWTH AND YIELD ANALYSIS TRIAL     
*TREATMENTS         
  2 1 1 0 Sensation                
*CULTIVARS          
   SR SR0002 Sensation       
*FIELDS             
   UFWM0001 UFWM1401   0.0  -99. DR000  -99. 100.0   -99 -99    -99. UFGA010700-99.00 -99.0
    -99.0000000000  -99.0000000000   -99.000               1.0  100.   1.0 -99.0   -99   -99
*INITIAL CONDITIONS 
               0     0     0  1.00  1.00 -99.0     0  0.00  0.00  100.    0.
      5. 0.091   0.0   0.0
     15. 0.091   0.0   0.0
     30. 0.076   0.0   0.0
     45. 0.071   0.0   0.0
     60. 0.071   0.0   0.0
     90. 0.081   0.0   0.0
    120. 0.078   0.0   0.0
    150. 0.084   0.0   0.0
    180. 0.084   0.0   0.0
*PLANTING DETAILS   
   2014282     -99   4.3   4.3     T     R  121.   90.  10.0  176.   30.  20.0   1.0 -99.0
*IRRIGATION         
   1.000    0.    0.    0. GS000 IR001   0.0
*FERTILIZERS        
*RESIDUES           
*CHEMICALS          
*TILLAGE            
*ENVIRONMENT        
*HARVEST            
   2014327 GS000   -99   -99  100.    0.
   2014334 GS000   -99   -99  100.    0.
   2014337 GS000   -99   -99  100.    0.
   2014341 GS000   -99   -99  100.    0.
   2014344 GS000   -99   -99  100.    0.
   2014348 GS000   -99   -99  100.    0.
   2014351 GS000   -99   -99  100.    0.
   2014354 GS000   -99   -99  100.    0.
   2014357 GS000   -99   -99  100.    0.
   2014362 GS000   -99   -99  100.    0.
   2015001 GS000   -99   -99  100.    0.
   2015004 GS000   -99   -99  100.    0.
   2015007 GS000   -99   -99  100.    0.
   2015011 GS000   -99   -99  100.    0.
   2015014 GS000   -99   -99  100.    0.
   2015018 GS000   -99   -99  100.    0.
   2015021 GS000   -99   -99  100.    0.
   2015025 GS000   -99   -99  100.    0.
   2015028 GS000   -99   -99  100.    0.
   2015032 GS000   -99   -99  100.    0.
   2015035 GS000   -99   -99  100.    0.
   2015039 GS000   -99   -99  100.    0.
   2015042 GS000   -99   -99  100.    0.
   2015046 GS000   -99   -99  100.    0.
   2015049 GS000   -99   -99  100.    0.
   2015053 GS000   -99   -99  100.    0.
   2015056 GS000   -99   -99  100.    0.
   2015060 GS000   -99   -99  100.    0.
   2015063 GS000   -99   -99  100.    0.
   2015067 GS000   -99   -99  100.    0.
   2015070 GS000   -99   -99  100.    0.
   2015074 GS000   -99   -99  100.    0.
   2015077 GS000   -99   -99  100.    0.
   2015081 GS000   -99   -99  100.    0.
   2015084 GS000   -99   -99  100.    0.
   2015087 GS000   -99   -99  100.    0.
*SOIL               
 UFGA010700  SCS         -99    -99. Candler                                           
 Gainesville USA          29.630 -82.370 Hyperthermic uncoated                             
 Y      0.17   6.0  0.85   64.  1.00  0.95 IB001 IB001 IB001 -99  
    5.       0.045 0.091 0.412 1.000  21.0  1.49 0.480   1.3   1.3 -99.0 -99.0  5.50-99.00-99.00-99.00
   15.       0.045 0.091 0.412 1.000  21.0  1.49 0.480   1.3   1.3 -99.0 -99.0  5.50-99.00-99.00-99.00
   30.       0.037 0.076 0.404 0.638  21.0  1.52 0.180   1.3   1.3 -99.0 -99.0  5.30-99.00-99.00-99.00
   45.       0.034 0.071 0.415 0.472  21.0  1.49 0.090   1.3   1.3 -99.0 -99.0  5.10-99.00-99.00-99.00
   60.       0.034 0.071 0.415 0.350  21.0  1.49 0.090   1.3   1.3 -99.0 -99.0  5.10-99.00-99.00-99.00
   90.       0.043 0.081 0.412 0.223  21.0  1.50 0.090   3.0   1.2 -99.0 -99.0  5.20-99.00-99.00-99.00
  120.       0.042 0.078 0.412 0.122  21.0  1.50 0.020   3.0   1.2 -99.0 -99.0  5.30-99.00-99.00-99.00
  150.       0.047 0.084 0.416 0.067  21.0  1.49 0.020   4.0   1.5 -99.0 -99.0  5.20-99.00-99.00-99.00
  180.       0.047 0.084 0.416 0.037  21.0  1.49 0.020   4.0   1.5 -99.0 -99.0  5.20-99.00-99.00-99.00
                    
    5.-99.00 -99.0 -99.0 -99.0 -99.0 -99.0 -99.0 -99.0 -99.0 -99.0-99.00 -99.0 -99.0 -99.0 -99.0 -99.0  -99.  -99.
   15.-99.00 -99.0 -99.0 -99.0 -99.0 -99.0 -99.0 -99.0 -99.0 -99.0-99.00 -99.0 -99.0 -99.0 -99.0 -99.0  -99.  -99.
   30.-99.00 -99.0 -99.0 -99.0 -99.0 -99.0 -99.0 -99.0 -99.0 -99.0-99.00 -99.0 -99.0 -99.0 -99.0 -99.0  -99.  -99.
   45.-99.00 -99.0 -99.0 -99.0 -99.0 -99.0 -99.0 -99.0 -99.0 -99.0-99.00 -99.0 -99.0 -99.0 -99.0 -99.0  -99.  -99.
   60.-99.00 -99.0 -99.0 -99.0 -99.0 -99.0 -99.0 -99.0 -99.0 -99.0-99.00 -99.0 -99.0 -99.0 -99.0 -99.0  -99.  -99.
   90.-99.00 -99.0 -99.0 -99.0 -99.0 -99.0 -99.0 -99.0 -99.0 -99.0-99.00 -99.0 -99.0 -99.0 -99.0 -99.0  -99.  -99.
  120.-99.00 -99.0 -99.0 -99.0 -99.0 -99.0 -99.0 -99.0 -99.0 -99.0-99.00 -99.0 -99.0 -99.0 -99.0 -99.0  -99.  -99.
  150.-99.00 -99.0 -99.0 -99.0 -99.0 -99.0 -99.0 -99.0 -99.0 -99.0-99.00 -99.0 -99.0 -99.0 -99.0 -99.0  -99.  -99.
  180.-99.00 -99.0 -99.0 -99.0 -99.0 -99.0 -99.0 -99.0 -99.0 -99.0-99.00 -99.0 -99.0 -99.0 -99.0 -99.0  -99.  -99.
                    
    5.-99.00-99.00-99.00-99.00
   15.-99.00-99.00-99.00-99.00
   30.-99.00-99.00-99.00-99.00
   45.-99.00-99.00-99.00-99.00
   60.-99.00-99.00-99.00-99.00
   90.-99.00-99.00-99.00-99.00
  120.-99.00-99.00-99.00-99.00
  150.-99.00-99.00-99.00-99.00
  180.-99.00-99.00-99.00-99.00
*CULTIVAR           
SR0002 Sensation        SR0002 12.33 0.000 27.00  6.90  8.40 91.50400.00 1.600 165.0 150.0  0.95 0.005 13.30180.00 42.40  20.0 0.300 0.050
